@<TRIPOS>MOLECULE
*****
 8 7 0 0 0
SMALL
GASTEIGER

@<TRIPOS>ATOM
      1 C           1.0887   -0.0459   -0.0368 C.2     1  LIG1        0.4107
      2 O           0.4050    0.4722    0.8762 O.2     1  LIG1       -0.2408
      3 C           0.3092   -0.6930   -1.1771 C.3     1  LIG1        0.4910
      4 F           0.6167   -0.0933   -2.3491 F       1  LIG1       -0.1606
      5 F           0.6167   -2.0068   -1.2632 F       1  LIG1       -0.1606
      6 F          -1.0301   -0.5812   -0.9800 F       1  LIG1       -0.1606
      7 O           2.3641   -0.0732   -0.0850 O.3     1  LIG1       -0.4744
      8 H           2.7969   -0.4834   -0.8077 H       1  LIG1        0.2953
@<TRIPOS>BOND
     1     1     2    2
     2     1     3    1
     3     3     4    1
     4     3     5    1
     5     3     6    1
     6     1     7    1
     7     7     8    1
