@<TRIPOS>MOLECULE
*****
 8 7 0 0 0
SMALL
GASTEIGER

@<TRIPOS>ATOM
      1 C          -1.0828    0.1791    0.0593 C.3     1  LIG1        0.0331
      2 C           0.4214    0.1752    0.0577 C.2     1  LIG1        0.3016
      3 O           0.9805   -0.8775   -0.3689 O.3     1  LIG1       -0.4808
      4 O           0.9719    1.2324    0.4862 O.2     1  LIG1       -0.2513
      5 H          -1.4423   -0.7549   -0.3192 H       1  LIG1        0.0342
      6 H          -1.4380    0.9757   -0.5605 H       1  LIG1        0.0342
      7 H          -1.4380    0.3193    1.0589 H       1  LIG1        0.0342
      8 H           1.9154   -0.9349   -0.3922 H       1  LIG1        0.2950
@<TRIPOS>BOND
     1     1     2    1
     2     2     3    1
     3     2     4    2
     4     1     5    1
     5     1     6    1
     6     1     7    1
     7     3     8    1
