@<TRIPOS>MOLECULE
*****
 17 16 0 0 0
SMALL
GASTEIGER

@<TRIPOS>ATOM
      1 C           0.9895   -0.1178    0.1308 C.3     1  LIG1       -0.0653
      2 C           2.4312   -0.0301   -0.0267 C.3     1  LIG1       -0.0554
      3 C           3.2252    0.5405   -1.0510 C.3     1  LIG1       -0.0432
      4 C           4.6013    0.7365   -1.4028 C.3     1  LIG1        0.0448
      5 C           5.0920    1.3728   -2.5449 C.2     1  LIG1        0.3047
      6 O           4.2725    1.7901   -3.2939 O.3     1  LIG1       -0.4806
      7 O           6.3841    1.4072   -2.6066 O.2     1  LIG1       -0.2510
      8 H           0.7607   -0.6265    1.0439 H       1  LIG1        0.0230
      9 H           0.5731   -0.6590   -0.6930 H       1  LIG1        0.0230
     10 H           0.5731    0.8675    0.1573 H       1  LIG1        0.0230
     11 H           2.7540   -1.0496    0.0083 H       1  LIG1        0.0263
     12 H           2.5939    0.7349    0.7035 H       1  LIG1        0.0263
     13 H           2.8612    1.5466   -1.0618 H       1  LIG1        0.0270
     14 H           3.1486   -0.3362   -1.6595 H       1  LIG1        0.0270
     15 H           5.0216   -0.2470   -1.4324 H       1  LIG1        0.0377
     16 H           4.8647    1.4698   -0.6695 H       1  LIG1        0.0377
     17 H           4.5354    2.2278   -4.0796 H       1  LIG1        0.2951
@<TRIPOS>BOND
     1     1     2    1
     2     2     3    1
     3     3     4    1
     4     4     5    1
     5     5     6    1
     6     5     7    2
     7     1     8    1
     8     1     9    1
     9     1    10    1
    10     2    11    1
    11     2    12    1
    12     3    13    1
    13     3    14    1
    14     4    15    1
    15     4    16    1
    16     6    17    1
