@<TRIPOS>MOLECULE
*****
 8 7 0 0 0
SMALL
GASTEIGER

@<TRIPOS>ATOM
      1 CL         -3.6032    0.1917    0.1164 Cl      1  LIG1       -0.0717
      2 C          -1.8050    0.1448    0.1930 C.3     1  LIG1        0.2873
      3 CL         -1.2042   -0.6484   -1.3117 Cl      1  LIG1       -0.0717
      4 CL         -1.2042    1.8455    0.2175 Cl      1  LIG1       -0.0717
      5 C          -1.2725   -0.6261    1.4502 C.2     1  LIG1        0.3566
      6 O          -2.1300   -1.1159    2.2490 O.3     1  LIG1       -0.4777
      7 O          -0.0036   -0.6979    1.5672 O.2     1  LIG1       -0.2462
      8 H          -1.8476   -1.5829    3.0107 H       1  LIG1        0.2952
@<TRIPOS>BOND
     1     1     2    1
     2     2     3    1
     3     2     4    1
     4     2     5    1
     5     5     6    1
     6     5     7    2
     7     6     8    1
