@<TRIPOS>MOLECULE
*****
 5 4 0 0 0
SMALL
GASTEIGER

@<TRIPOS>ATOM
      1 O          -2.0968    0.5166    0.2632 O.2     1  LIG1       -0.2548
      2 C          -1.0683    0.8066   -0.2761 C.2     1  LIG1        0.2919
      3 O           0.1064    1.1376   -0.8919 O.3     1  LIG1       -0.4828
      4 H          -1.5962    1.2265   -1.0571 H       1  LIG1        0.1510
      5 H           0.0939    1.5813   -1.7172 H       1  LIG1        0.2948
@<TRIPOS>BOND
     1     1     2    2
     2     2     3    1
     3     2     4    1
     4     3     5    1
