@<TRIPOS>MOLECULE
*****
 68 79 0 0 0
SMALL
GASTEIGER

@<TRIPOS>ATOM
      1 C          -3.1138   -2.4671   -1.9398 C.ar    1  LIG1       -0.0540
      2 C          -3.8347   -1.7823   -0.8975 C.ar    1  LIG1       -0.0612
      3 C          -3.3356   -0.6055   -0.3924 C.ar    1  LIG1       -0.0612
      4 C          -2.1309   -0.1524   -0.9258 C.ar    1  LIG1       -0.0540
      5 C          -1.6171   -0.6747   -2.0948 C.ar    1  LIG1       -0.0173
      6 C          -1.9392   -1.8924   -2.7891 C.ar    1  LIG1       -0.0173
      7 C          -0.9633   -2.0477   -3.9650 C.ar    1  LIG1       -0.0463
      8 C           0.0961   -0.9840   -4.7890 C.ar    1  LIG1       -0.0167
      9 C          -0.1420    0.1579   -4.0947 C.ar    1  LIG1       -0.0167
     10 C          -0.7822    0.3123   -2.8607 C.ar    1  LIG1       -0.0463
     11 C           0.3302    1.2953   -4.7578 C.ar    1  LIG1       -0.0457
     12 C           1.2280    1.5158   -5.9439 C.ar    1  LIG1       -0.0093
     13 C           1.9544    0.7664   -6.8467 C.ar    1  LIG1       -0.0090
     14 C           1.2301   -0.5851   -6.0589 C.ar    1  LIG1       -0.0457
     15 C           3.1962    1.6895   -8.1731 C.ar    1  LIG1       -0.0092
     16 C           2.8676    2.9995   -8.5204 C.ar    1  LIG1       -0.0053
     17 C           2.3040    3.6530   -7.4926 C.ar    1  LIG1       -0.0271
     18 C           1.5804    2.8523   -5.9663 C.ar    1  LIG1       -0.0135
     19 C           0.4041    3.9839   -5.3251 C.2     1  LIG1       -0.0574
     20 C           0.1749    5.2003   -5.6189 C.2     1  LIG1       -0.0797
     21 C           0.8348    6.1005   -6.7710 C.3     1  LIG1       -0.0152
     22 C           1.7106    5.2006   -8.0649 C.3     1  LIG1       -0.0010
     23 C           0.7629    4.8059   -9.5417 C.3     1  LIG1       -0.0005
     24 C          -0.0166    3.4878   -9.4640 C.3     1  LIG1       -0.0078
     25 C          -0.1577    3.5896   -8.0633 C.3     1  LIG1       -0.0451
     26 C           0.5567    4.8133   -7.2686 C.3     1  LIG1       -0.0456
     27 C           0.5382    2.2817  -10.4597 C.ar    1  LIG1       -0.0354
     28 C           0.5380    0.9044  -10.1896 C.ar    1  LIG1       -0.0577
     29 C           1.3321    0.0074  -10.9615 C.ar    1  LIG1       -0.0609
     30 C           2.1959    0.4361  -11.9786 C.ar    1  LIG1       -0.0540
     31 C           2.2281    1.7833  -12.3171 C.ar    1  LIG1       -0.0170
     32 C           1.3766    2.7037  -11.6029 C.ar    1  LIG1       -0.0064
     33 C           1.7273    4.0555  -11.7633 C.ar    1  LIG1       -0.0058
     34 C           1.8237    4.6505  -10.5436 C.ar    1  LIG1       -0.0265
     35 C           2.8808    4.0930   -9.8218 C.ar    1  LIG1       -0.0058
     36 C           3.9702    4.4407  -10.5262 C.ar    1  LIG1       -0.0164
     37 C           4.7954    3.3954  -10.0455 C.ar    1  LIG1       -0.0534
     38 C           4.3551    2.1052   -9.0593 C.ar    1  LIG1       -0.0528
     39 C           3.7846    5.1297  -11.8355 C.ar    1  LIG1       -0.0463
     40 C           2.8082    4.4919  -12.5591 C.ar    1  LIG1       -0.0164
     41 C           3.4068    3.6085  -13.4302 C.ar    1  LIG1       -0.0534
     42 C           3.2028    2.2421  -13.2280 C.ar    1  LIG1       -0.0534
     43 H          -3.4041   -3.4360   -2.1451 H       1  LIG1        0.0624
     44 H          -4.7182   -2.1719   -0.5332 H       1  LIG1        0.0618
     45 H          -3.8298   -0.0822    0.3471 H       1  LIG1        0.0618
     46 H          -1.6106    0.5914   -0.4349 H       1  LIG1        0.0624
     47 H          -0.9411   -3.0077   -4.3430 H       1  LIG1        0.0630
     48 H          -0.6645    1.2346   -2.4129 H       1  LIG1        0.0630
     49 H          -0.0124    2.1756   -4.3422 H       1  LIG1        0.0630
     50 H           1.5880   -1.4563   -6.4808 H       1  LIG1        0.0630
     51 H          -0.2039    3.5987   -4.5855 H       1  LIG1        0.0621
     52 H          -0.5332    5.6731   -5.0357 H       1  LIG1        0.0575
     53 H           0.9003    7.1519   -6.5831 H       1  LIG1        0.0349
     54 H           2.4850    5.8932   -8.3208 H       1  LIG1        0.0361
     55 H           0.0205    5.5528   -9.7309 H       1  LIG1        0.0361
     56 H          -0.9595    3.2275   -9.8978 H       1  LIG1        0.0355
     57 H           0.2267    2.6824   -7.6460 H       1  LIG1        0.0271
     58 H          -1.2018    3.7834   -7.9317 H       1  LIG1        0.0271
     59 H           1.5220    4.6654   -7.7058 H       1  LIG1        0.0271
     60 H          -0.2684    4.7847   -6.5879 H       1  LIG1        0.0271
     61 H          -0.0451    0.5362   -9.4218 H       1  LIG1        0.0621
     62 H           1.2683   -1.0032  -10.7626 H       1  LIG1        0.0618
     63 H           2.8007   -0.2405  -12.4701 H       1  LIG1        0.0624
     64 H           5.7855    3.4288  -10.3347 H       1  LIG1        0.0624
     65 H           5.0918    1.3825   -9.0564 H       1  LIG1        0.0624
     66 H           4.3106    5.9601  -12.1499 H       1  LIG1        0.0630
     67 H           3.9903    3.9474  -14.2110 H       1  LIG1        0.0624
     68 H           3.7723    1.5590  -13.7516 H       1  LIG1        0.0624
@<TRIPOS>BOND
     1     1     2   ar
     2     2     3   ar
     3     3     4   ar
     4     4     5   ar
     5     5     6   ar
     6     1     6   ar
     7     6     7   ar
     8     7     8   ar
     9     8     9   ar
    10     9    10   ar
    11     5    10   ar
    12     9    11   ar
    13    11    12   ar
    14    12    13   ar
    15    13    14   ar
    16     8    14   ar
    17    13    15   ar
    18    15    16   ar
    19    16    17   ar
    20    17    18   ar
    21    12    18   ar
    22    18    19    1
    23    19    20    2
    24    20    21    1
    25    21    22    1
    26    17    22    1
    27    22    23    1
    28    23    24    1
    29    24    25    1
    30    25    26    1
    31    21    26    1
    32    24    27    1
    33    27    28   ar
    34    28    29   ar
    35    29    30   ar
    36    30    31   ar
    37    31    32   ar
    38    27    32   ar
    39    32    33   ar
    40    33    34   ar
    41    23    34    1
    42    34    35   ar
    43    16    35   ar
    44    35    36   ar
    45    36    37   ar
    46    37    38   ar
    47    15    38   ar
    48    36    39   ar
    49    39    40   ar
    50    33    40   ar
    51    40    41   ar
    52    41    42   ar
    53    31    42   ar
    54     1    43    1
    55     2    44    1
    56     3    45    1
    57     4    46    1
    58     7    47    1
    59    10    48    1
    60    11    49    1
    61    14    50    1
    62    19    51    1
    63    20    52    1
    64    21    53    1
    65    22    54    1
    66    23    55    1
    67    24    56    1
    68    25    57    1
    69    25    58    1
    70    26    59    1
    71    26    60    1
    72    28    61    1
    73    29    62    1
    74    30    63    1
    75    37    64    1
    76    38    65    1
    77    39    66    1
    78    41    67    1
    79    42    68    1
