@<TRIPOS>MOLECULE
*****
 12 12 0 0 0
SMALL
GASTEIGER

@<TRIPOS>ATOM
      1 C          -4.6057    4.4917   -6.4760 C.ar    1  LIG1       -0.0618
      2 C          -3.2150    4.5652   -6.4607 C.ar    1  LIG1       -0.0618
      3 C          -2.4560    3.3975   -6.4617 C.ar    1  LIG1       -0.0618
      4 C          -3.0880    2.1564   -6.4770 C.ar    1  LIG1       -0.0618
      5 C          -4.4788    2.0828   -6.4929 C.ar    1  LIG1       -0.0618
      6 C          -5.2376    3.2506   -6.4924 C.ar    1  LIG1       -0.0618
      7 H          -5.1681    5.3570   -6.4752 H       1  LIG1        0.0618
      8 H          -2.7469    5.4849   -6.4487 H       1  LIG1        0.0618
      9 H          -1.4255    3.4517   -6.4510 H       1  LIG1        0.0618
     10 H          -2.5256    1.2911   -6.4765 H       1  LIG1        0.0618
     11 H          -4.9469    1.1631   -6.5051 H       1  LIG1        0.0618
     12 H          -6.2681    3.1964   -6.5042 H       1  LIG1        0.0618
@<TRIPOS>BOND
     1     1     2   ar
     2     2     3   ar
     3     3     4   ar
     4     4     5   ar
     5     5     6   ar
     6     1     6   ar
     7     1     7    1
     8     2     8    1
     9     3     9    1
    10     4    10    1
    11     5    11    1
    12     6    12    1
