@<TRIPOS>MOLECULE
*****
 24 26 0 0 0
SMALL
GASTEIGER

@<TRIPOS>ATOM
      1 C          -1.3696    4.9975    0.3758 C.ar    1  LIG1       -0.0102
      2 C          -0.6735    6.2294    0.3767 C.ar    1  LIG1       -0.0173
      3 C           0.7193    6.2513    0.3772 C.ar    1  LIG1       -0.0540
      4 C           1.4345    5.0575    0.3767 C.ar    1  LIG1       -0.0612
      5 C           0.7643    3.8374    0.3764 C.ar    1  LIG1       -0.0611
      6 C          -0.6254    3.8064    0.3757 C.ar    1  LIG1       -0.0534
      7 C          -1.3828    7.4303    0.3768 C.ar    1  LIG1       -0.0534
      8 C          -2.7765    7.4299    0.3774 C.ar    1  LIG1       -0.0534
      9 C          -3.4857    6.2288    0.3765 C.ar    1  LIG1       -0.0173
     10 C          -2.7895    4.9953    0.3756 C.ar    1  LIG1       -0.0102
     11 C          -3.5363    3.8064    0.3753 C.ar    1  LIG1       -0.0534
     12 C          -4.9271    3.8390    0.3797 C.ar    1  LIG1       -0.0611
     13 C          -5.5969    5.0593    0.3761 C.ar    1  LIG1       -0.0612
     14 C          -4.8771    6.2507    0.3753 C.ar    1  LIG1       -0.0540
     15 H           1.2209    7.1532    0.3779 H       1  LIG1        0.0624
     16 H           2.4663    5.0768    0.3766 H       1  LIG1        0.0618
     17 H           1.2997    2.9551    0.3767 H       1  LIG1        0.0618
     18 H          -1.1157    2.8983    0.3752 H       1  LIG1        0.0624
     19 H          -0.8714    8.3267    0.3764 H       1  LIG1        0.0624
     20 H          -3.2882    8.3261    0.3785 H       1  LIG1        0.0624
     21 H          -3.0476    2.8974    0.3718 H       1  LIG1        0.0624
     22 H          -5.4631    2.9572    0.3855 H       1  LIG1        0.0618
     23 H          -6.6287    5.0807    0.3741 H       1  LIG1        0.0618
     24 H          -5.3772    7.1535    0.3739 H       1  LIG1        0.0624
@<TRIPOS>BOND
     1     1     2   ar
     2     2     3   ar
     3     3     4   ar
     4     4     5   ar
     5     5     6   ar
     6     1     6   ar
     7     2     7   ar
     8     7     8   ar
     9     8     9   ar
    10     9    10   ar
    11     1    10   ar
    12    10    11   ar
    13    11    12   ar
    14    12    13   ar
    15    13    14   ar
    16     9    14   ar
    17     3    15    1
    18     4    16    1
    19     5    17    1
    20     6    18    1
    21     7    19    1
    22     8    20    1
    23    11    21    1
    24    12    22    1
    25    13    23    1
    26    14    24    1
