@<TRIPOS>MOLECULE
*****
 31 33 0 0 0
SMALL
GASTEIGER

@<TRIPOS>ATOM
      1 C           1.1661    1.3878   -0.0644 C.ar    1  LIG1       -0.0540
      2 C           2.3838    0.7299   -0.0585 C.ar    1  LIG1       -0.0606
      3 C           2.4031   -0.6566   -0.0385 C.ar    1  LIG1       -0.0534
      4 C           1.2156   -1.4100   -0.0047 C.ar    1  LIG1       -0.0099
      5 C          -0.0617   -0.7413    0.0331 C.ar    1  LIG1       -0.0073
      6 C          -0.0314    0.6780   -0.0205 C.ar    1  LIG1       -0.0171
      7 C          -1.1951    1.4397   -0.0332 C.ar    1  LIG1       -0.0540
      8 C          -2.4456    0.8436    0.0159 C.ar    1  LIG1       -0.0609
      9 C          -2.5311   -0.5320    0.1046 C.ar    1  LIG1       -0.0582
     10 C          -1.3745   -1.3219    0.1205 C.ar    1  LIG1       -0.0422
     11 C          -1.6462   -2.7996    0.2803 C.3     1  LIG1       -0.0391
     12 C           1.3704   -2.8635   -0.0652 C.ar    1  LIG1       -0.0173
     13 C           1.2127   -3.5400   -1.2811 C.ar    1  LIG1       -0.0540
     14 C           1.2708   -4.9303   -1.3353 C.ar    1  LIG1       -0.0612
     15 C           1.4998   -5.6589   -0.1724 C.ar    1  LIG1       -0.0617
     16 C           1.6971   -4.9979    1.0375 C.ar    1  LIG1       -0.0612
     17 C           1.6373   -3.6067    1.0901 C.ar    1  LIG1       -0.0540
     18 H           1.1452    2.4189   -0.1020 H       1  LIG1        0.0624
     19 H           3.2664    1.2645   -0.0688 H       1  LIG1        0.0618
     20 H           3.3108   -1.1476   -0.0486 H       1  LIG1        0.0624
     21 H          -1.1262    2.4683   -0.0802 H       1  LIG1        0.0624
     22 H          -3.3012    1.4200   -0.0133 H       1  LIG1        0.0618
     23 H          -3.4576   -0.9831    0.1599 H       1  LIG1        0.0620
     24 H          -2.7025   -2.9659    0.3191 H       1  LIG1        0.0278
     25 H          -1.1966   -3.1491    1.1861 H       1  LIG1        0.0278
     26 H          -1.2320   -3.3304   -0.5514 H       1  LIG1        0.0278
     27 H           1.0517   -3.0020   -2.1470 H       1  LIG1        0.0624
     28 H           1.1443   -5.4188   -2.2355 H       1  LIG1        0.0618
     29 H           1.5236   -6.6901   -0.2063 H       1  LIG1        0.0618
     30 H           1.8876   -5.5386    1.8955 H       1  LIG1        0.0618
     31 H           1.7910   -3.1210    1.9875 H       1  LIG1        0.0624
@<TRIPOS>BOND
     1     1     2   ar
     2     2     3   ar
     3     3     4   ar
     4     4     5   ar
     5     5     6   ar
     6     1     6   ar
     7     6     7   ar
     8     7     8   ar
     9     8     9   ar
    10     9    10   ar
    11     5    10   ar
    12    10    11    1
    13     4    12    1
    14    12    13   ar
    15    13    14   ar
    16    14    15   ar
    17    15    16   ar
    18    16    17   ar
    19    12    17   ar
    20     1    18    1
    21     2    19    1
    22     3    20    1
    23     7    21    1
    24     8    22    1
    25     9    23    1
    26    11    24    1
    27    11    25    1
    28    11    26    1
    29    13    27    1
    30    14    28    1
    31    15    29    1
    32    16    30    1
    33    17    31    1
