@<TRIPOS>MOLECULE
*****
 34 37 0 0 0
SMALL
GASTEIGER

@<TRIPOS>ATOM
      1 C          -2.7994    1.2897   -0.4382 C.ar    1  LIG1       -0.0540
      2 C          -1.6657    2.0818   -0.3871 C.ar    1  LIG1       -0.0606
      3 C          -1.7965    3.4684   -0.4061 C.ar    1  LIG1       -0.0534
      4 C          -3.0371    4.1279   -0.5504 C.ar    1  LIG1       -0.0096
      5 C          -4.1717    3.2798   -0.7349 C.ar    1  LIG1       -0.0102
      6 C          -4.0492    1.8822   -0.6021 C.ar    1  LIG1       -0.0173
      7 C          -5.1710    1.0490   -0.6221 C.ar    1  LIG1       -0.0540
      8 C          -6.4474    1.5667   -0.8052 C.ar    1  LIG1       -0.0612
      9 C          -6.5938    2.9189   -1.0608 C.ar    1  LIG1       -0.0611
     10 C          -5.4654    3.7292   -1.0483 C.ar    1  LIG1       -0.0534
     11 C          -3.0196    5.6321   -0.4964 C.ar    1  LIG1       -0.0096
     12 C          -1.7773    6.2603   -0.7217 C.ar    1  LIG1       -0.0534
     13 C          -1.6151    7.6406   -0.7773 C.ar    1  LIG1       -0.0606
     14 C          -2.7294    8.4566   -0.6758 C.ar    1  LIG1       -0.0540
     15 C          -3.9774    7.8982   -0.4263 C.ar    1  LIG1       -0.0173
     16 C          -4.1252    6.5037   -0.2503 C.ar    1  LIG1       -0.0102
     17 C          -5.4013    6.0916    0.1633 C.ar    1  LIG1       -0.0534
     18 C          -6.5095    6.9324    0.2189 C.ar    1  LIG1       -0.0611
     19 C          -6.3509    8.2704   -0.0935 C.ar    1  LIG1       -0.0612
     20 C          -5.0791    8.7578   -0.3702 C.ar    1  LIG1       -0.0540
     21 H          -2.7190    0.2641   -0.3551 H       1  LIG1        0.0624
     22 H          -0.7305    1.6485   -0.3354 H       1  LIG1        0.0618
     23 H          -0.9444    4.0426   -0.3099 H       1  LIG1        0.0624
     24 H          -5.0493    0.0316   -0.4987 H       1  LIG1        0.0624
     25 H          -7.2744    0.9517   -0.7513 H       1  LIG1        0.0618
     26 H          -7.5249    3.3184   -1.2571 H       1  LIG1        0.0618
     27 H          -5.5852    4.7265   -1.2848 H       1  LIG1        0.0624
     28 H          -0.9448    5.6646   -0.8523 H       1  LIG1        0.0624
     29 H          -0.6756    8.0517   -0.8929 H       1  LIG1        0.0618
     30 H          -2.6331    9.4782   -0.7852 H       1  LIG1        0.0624
     31 H          -5.5257    5.1061    0.4431 H       1  LIG1        0.0624
     32 H          -7.4346    6.5632    0.4890 H       1  LIG1        0.0618
     33 H          -7.1681    8.9000   -0.1210 H       1  LIG1        0.0618
     34 H          -4.9459    9.7676   -0.5364 H       1  LIG1        0.0624
@<TRIPOS>BOND
     1     1     2   ar
     2     2     3   ar
     3     3     4   ar
     4     4     5   ar
     5     5     6   ar
     6     1     6   ar
     7     6     7   ar
     8     7     8   ar
     9     8     9   ar
    10     9    10   ar
    11     5    10   ar
    12     4    11    1
    13    11    12   ar
    14    12    13   ar
    15    13    14   ar
    16    14    15   ar
    17    15    16   ar
    18    11    16   ar
    19    16    17   ar
    20    17    18   ar
    21    18    19   ar
    22    19    20   ar
    23    15    20   ar
    24     1    21    1
    25     2    22    1
    26     3    23    1
    27     7    24    1
    28     8    25    1
    29     9    26    1
    30    10    27    1
    31    12    28    1
    32    13    29    1
    33    14    30    1
    34    17    31    1
    35    18    32    1
    36    19    33    1
    37    20    34    1
