@<TRIPOS>MOLECULE
*****
 22 23 0 0 0
SMALL
GASTEIGER

@<TRIPOS>ATOM
      1 C          -3.8178    4.6380    0.0963 C.ar    1  LIG1       -0.0179
      2 C          -3.1699    5.8786    0.1498 C.ar    1  LIG1       -0.0540
      3 C          -1.7826    5.9746    0.2319 C.ar    1  LIG1       -0.0612
      4 C          -1.0103    4.8197    0.2676 C.ar    1  LIG1       -0.0617
      5 C          -1.6279    3.5744    0.2361 C.ar    1  LIG1       -0.0612
      6 C          -3.0169    3.4904    0.1528 C.ar    1  LIG1       -0.0540
      7 C          -5.2717    4.5432   -0.0626 C.ar    1  LIG1       -0.0179
      8 C          -5.9203    3.3027   -0.1477 C.ar    1  LIG1       -0.0540
      9 C          -7.2935    3.2090   -0.3659 C.ar    1  LIG1       -0.0612
     10 C          -8.0555    4.3646   -0.4972 C.ar    1  LIG1       -0.0617
     11 C          -7.4427    5.6103   -0.4043 C.ar    1  LIG1       -0.0612
     12 C          -6.0688    5.6928   -0.1862 C.ar    1  LIG1       -0.0540
     13 H          -3.7340    6.7425    0.1280 H       1  LIG1        0.0624
     14 H          -1.3293    6.9011    0.2661 H       1  LIG1        0.0618
     15 H           0.0183    4.8862    0.3173 H       1  LIG1        0.0618
     16 H          -1.0592    2.7141    0.2743 H       1  LIG1        0.0618
     17 H          -3.4654    2.5612    0.1323 H       1  LIG1        0.0624
     18 H          -5.3668    2.4377   -0.0462 H       1  LIG1        0.0624
     19 H          -7.7443    2.2829   -0.4300 H       1  LIG1        0.0618
     20 H          -9.0720    4.2986   -0.6631 H       1  LIG1        0.0618
     21 H          -8.0044    6.4712   -0.4966 H       1  LIG1        0.0618
     22 H          -5.6260    6.6221   -0.1137 H       1  LIG1        0.0624
@<TRIPOS>BOND
     1     1     2   ar
     2     2     3   ar
     3     3     4   ar
     4     4     5   ar
     5     5     6   ar
     6     1     6   ar
     7     1     7    1
     8     7     8   ar
     9     8     9   ar
    10     9    10   ar
    11    10    11   ar
    12    11    12   ar
    13     7    12   ar
    14     2    13    1
    15     3    14    1
    16     4    15    1
    17     5    16    1
    18     6    17    1
    19     8    18    1
    20     9    19    1
    21    10    20    1
    22    11    21    1
    23    12    22    1
