@<TRIPOS>MOLECULE
*****
 18 19 0 0 0
SMALL
GASTEIGER

@<TRIPOS>ATOM
      1 C          -1.4746    4.7168   -5.8819 C.ar    1  LIG1       -0.0540
      2 C          -0.2915    5.4386   -5.9502 C.ar    1  LIG1       -0.0612
      3 C          -0.3190    6.8324   -5.9225 C.ar    1  LIG1       -0.0612
      4 C          -1.5194    7.5398   -5.8262 C.ar    1  LIG1       -0.0540
      5 C          -2.6988    6.8126   -5.7651 C.ar    1  LIG1       -0.0179
      6 C          -2.6664    5.4231   -5.7940 C.ar    1  LIG1       -0.0179
      7 C          -3.8641    4.7012   -5.7440 C.ar    1  LIG1       -0.0540
      8 C          -5.0398    5.3888   -5.9081 C.ar    1  LIG1       -0.0612
      9 C          -5.0377    6.7687   -6.0618 C.ar    1  LIG1       -0.0612
     10 C          -3.8947    7.4954   -5.7656 C.ar    1  LIG1       -0.0540
     11 H          -1.4686    3.6849   -5.8959 H       1  LIG1        0.0624
     12 H           0.6108    4.9427   -6.0217 H       1  LIG1        0.0618
     13 H           0.5697    7.3544   -5.9746 H       1  LIG1        0.0618
     14 H          -1.5285    8.5714   -5.8012 H       1  LIG1        0.0624
     15 H          -3.8630    3.6811   -5.5883 H       1  LIG1        0.0624
     16 H          -5.9348    4.8752   -5.9173 H       1  LIG1        0.0618
     17 H          -5.8857    7.2527   -6.3960 H       1  LIG1        0.0618
     18 H          -3.9382    8.5047   -5.5546 H       1  LIG1        0.0624
@<TRIPOS>BOND
     1     1     2   ar
     2     2     3   ar
     3     3     4   ar
     4     4     5   ar
     5     5     6   ar
     6     1     6   ar
     7     6     7   ar
     8     7     8   ar
     9     8     9   ar
    10     9    10   ar
    11     5    10   ar
    12     1    11    1
    13     2    12    1
    14     3    13    1
    15     4    14    1
    16     7    15    1
    17     8    16    1
    18     9    17    1
    19    10    18    1
