@<TRIPOS>MOLECULE
*****
 24 26 0 0 0
SMALL
GASTEIGER

@<TRIPOS>ATOM
      1 C          -7.7267    5.7641   -0.6166 C.ar    1  LIG1       -0.0540
      2 C          -8.9233    5.0606   -0.4347 C.ar    1  LIG1       -0.0612
      3 C          -8.9234    3.6714   -0.4343 C.ar    1  LIG1       -0.0612
      4 C          -7.7430    2.9676   -0.6160 C.ar    1  LIG1       -0.0540
      5 C          -6.5398    3.6591   -0.7702 C.ar    1  LIG1       -0.0173
      6 C          -6.5316    5.0728   -0.7646 C.ar    1  LIG1       -0.0173
      7 C          -5.3278    5.7725   -0.8083 C.ar    1  LIG1       -0.0463
      8 C          -4.1259    5.0768   -0.7740 C.ar    1  LIG1       -0.0173
      9 C          -4.1263    3.6625   -0.7769 C.ar    1  LIG1       -0.0173
     10 C          -5.3304    2.9643   -0.8140 C.ar    1  LIG1       -0.0463
     11 C          -2.9320    2.9660   -0.6342 C.ar    1  LIG1       -0.0540
     12 C          -1.7369    3.6716   -0.4459 C.ar    1  LIG1       -0.0612
     13 C          -1.7366    5.0660   -0.4481 C.ar    1  LIG1       -0.0612
     14 C          -2.9273    5.7657   -0.6277 C.ar    1  LIG1       -0.0540
     15 H          -7.7327    6.7958   -0.6407 H       1  LIG1        0.0624
     16 H          -9.8077    5.5754   -0.3007 H       1  LIG1        0.0618
     17 H          -9.8090    3.1595   -0.2977 H       1  LIG1        0.0618
     18 H          -7.7535    1.9359   -0.6372 H       1  LIG1        0.0624
     19 H          -5.3289    6.8029   -0.8660 H       1  LIG1        0.0630
     20 H          -5.3285    1.9341   -0.8739 H       1  LIG1        0.0630
     21 H          -2.9258    1.9346   -0.6668 H       1  LIG1        0.0624
     22 H          -0.8532    3.1575   -0.3051 H       1  LIG1        0.0618
     23 H          -0.8519    5.5808   -0.3162 H       1  LIG1        0.0618
     24 H          -2.9198    6.7974   -0.6523 H       1  LIG1        0.0624
@<TRIPOS>BOND
     1     1     2   ar
     2     2     3   ar
     3     3     4   ar
     4     4     5   ar
     5     5     6   ar
     6     1     6   ar
     7     6     7   ar
     8     7     8   ar
     9     8     9   ar
    10     9    10   ar
    11     5    10   ar
    12     9    11   ar
    13    11    12   ar
    14    12    13   ar
    15    13    14   ar
    16     8    14   ar
    17     1    15    1
    18     2    16    1
    19     3    17    1
    20     4    18    1
    21     7    19    1
    22    10    20    1
    23    11    21    1
    24    12    22    1
    25    13    23    1
    26    14    24    1
