@<TRIPOS>MOLECULE
*****
 30 33 0 0 0
SMALL
GASTEIGER

@<TRIPOS>ATOM
      1 C          -6.8050    7.7899   -5.5861 C.ar    1  LIG1       -0.0540
      2 C          -7.9754    7.0915   -5.3306 C.ar    1  LIG1       -0.0612
      3 C          -7.9764    5.7041   -5.3304 C.ar    1  LIG1       -0.0612
      4 C          -6.8061    5.0045   -5.5824 C.ar    1  LIG1       -0.0540
      5 C          -5.6285    5.6948   -5.8468 C.ar    1  LIG1       -0.0173
      6 C          -5.6282    7.0973   -5.8469 C.ar    1  LIG1       -0.0173
      7 C          -4.4316    7.7720   -6.0867 C.ar    1  LIG1       -0.0463
      8 C          -3.2350    7.0972   -5.8467 C.ar    1  LIG1       -0.0167
      9 C          -3.2353    5.6944   -5.8465 C.ar    1  LIG1       -0.0167
     10 C          -4.4315    5.0187   -6.0873 C.ar    1  LIG1       -0.0463
     11 C          -2.0609    4.9972   -5.5868 C.ar    1  LIG1       -0.0463
     12 C          -0.8264    5.7215   -5.3165 C.ar    1  LIG1       -0.0173
     13 C          -0.9111    7.0807   -5.3356 C.ar    1  LIG1       -0.0173
     14 C          -2.0603    7.7903   -5.5868 C.ar    1  LIG1       -0.0463
     15 C           0.1664    8.0118   -5.1033 C.ar    1  LIG1       -0.0540
     16 C           1.1351    7.0525   -4.8938 C.ar    1  LIG1       -0.0612
     17 C           2.1913    6.9475   -4.6643 C.ar    1  LIG1       -0.0612
     18 C           0.9993    5.8352   -4.9207 C.ar    1  LIG1       -0.0540
     19 H          -6.8075    8.8218   -5.5827 H       1  LIG1        0.0624
     20 H          -8.8495    7.6060   -5.1399 H       1  LIG1        0.0618
     21 H          -8.8516    5.1908   -5.1419 H       1  LIG1        0.0618
     22 H          -6.8091    3.9726   -5.5737 H       1  LIG1        0.0624
     23 H          -4.4316    8.7443   -6.4326 H       1  LIG1        0.0630
     24 H          -4.4315    4.0465   -6.4335 H       1  LIG1        0.0630
     25 H          -2.0638    3.9652   -5.5856 H       1  LIG1        0.0630
     26 H          -2.0507    8.8222   -5.5823 H       1  LIG1        0.0630
     27 H           0.2005    9.0432   -5.0962 H       1  LIG1        0.0624
     28 H           0.7123    6.1157   -4.9869 H       1  LIG1        0.0618
     29 H           3.1483    7.2735   -4.4572 H       1  LIG1        0.0618
     30 H           1.3919    4.8848   -4.8338 H       1  LIG1        0.0624
@<TRIPOS>BOND
     1     1     2   ar
     2     2     3   ar
     3     3     4   ar
     4     4     5   ar
     5     5     6   ar
     6     1     6   ar
     7     6     7   ar
     8     7     8   ar
     9     8     9   ar
    10     9    10   ar
    11     5    10   ar
    12     9    11   ar
    13    11    12   ar
    14    12    13   ar
    15    13    14   ar
    16     8    14   ar
    17    13    15   ar
    18    15    16   ar
    19    16    17   ar
    20    17    18   ar
    21    12    18   ar
    22     1    19    1
    23     2    20    1
    24     3    21    1
    25     4    22    1
    26     7    23    1
    27    10    24    1
    28    11    25    1
    29    14    26    1
    30    15    27    1
    31    16    28    1
    32    17    29    1
    33    18    30    1
