@<TRIPOS>MOLECULE
*****
 36 40 0 0 0
SMALL
GASTEIGER

@<TRIPOS>ATOM
      1 C          -9.2355    7.2682   -0.7094 C.ar    1  LIG1       -0.0540
      2 C         -10.4088    6.5698   -0.4397 C.ar    1  LIG1       -0.0612
      3 C         -10.4094    5.1767   -0.4384 C.ar    1  LIG1       -0.0612
      4 C          -9.2348    4.4766   -0.7066 C.ar    1  LIG1       -0.0540
      5 C          -8.0595    5.1629   -0.9792 C.ar    1  LIG1       -0.0173
      6 C          -8.0594    6.5786   -0.9706 C.ar    1  LIG1       -0.0173
      7 C          -6.8805    7.2745   -1.1044 C.ar    1  LIG1       -0.0463
      8 C          -5.7138    6.5608   -1.0357 C.ar    1  LIG1       -0.0167
      9 C          -5.6792    5.1369   -1.0223 C.ar    1  LIG1       -0.0167
     10 C          -6.8694    4.4561   -1.1257 C.ar    1  LIG1       -0.0463
     11 C          -4.5340    4.4247   -0.7324 C.ar    1  LIG1       -0.0463
     12 C          -3.4330    5.2876   -0.4572 C.ar    1  LIG1       -0.0167
     13 C          -3.4976    6.7285   -0.4901 C.ar    1  LIG1       -0.0167
     14 C          -4.6296    7.3314   -0.7998 C.ar    1  LIG1       -0.0463
     15 C          -2.4410    7.5445   -0.2127 C.ar    1  LIG1       -0.0463
     16 C          -1.5524    6.4582   -0.0576 C.ar    1  LIG1       -0.0173
     17 C          -0.4767    6.1978    0.2519 C.ar    1  LIG1       -0.0173
     18 C          -2.1073    5.0996   -0.1353 C.ar    1  LIG1       -0.0463
     19 C           1.1874    6.4713    0.4693 C.ar    1  LIG1       -0.0540
     20 C           1.5440    5.0923    0.2975 C.ar    1  LIG1       -0.0612
     21 C           0.5386    4.1869    0.0382 C.ar    1  LIG1       -0.0612
     22 C          -0.3410    5.2027    0.2598 C.ar    1  LIG1       -0.0540
     23 H          -9.2399    8.3001   -0.7152 H       1  LIG1        0.0624
     24 H         -11.2804    7.0851   -0.2403 H       1  LIG1        0.0618
     25 H         -11.2814    4.6622   -0.2384 H       1  LIG1        0.0618
     26 H          -9.2388    3.4446   -0.7025 H       1  LIG1        0.0624
     27 H          -6.8754    8.2960   -1.2511 H       1  LIG1        0.0630
     28 H          -6.8801    3.4404   -1.3083 H       1  LIG1        0.0630
     29 H          -4.4808    3.3942   -0.7166 H       1  LIG1        0.0630
     30 H          -4.6850    8.3601   -0.8599 H       1  LIG1        0.0630
     31 H          -2.3321    8.5683   -0.1425 H       1  LIG1        0.0630
     32 H          -1.8883    4.0929   -0.0756 H       1  LIG1        0.0630
     33 H           1.7409    7.3218    0.6570 H       1  LIG1        0.0624
     34 H           2.5273    4.7868    0.3664 H       1  LIG1        0.0618
     35 H           0.4789    3.1874   -0.2117 H       1  LIG1        0.0618
     36 H          -0.2300    5.3156    1.2796 H       1  LIG1        0.0624
@<TRIPOS>BOND
     1     1     2   ar
     2     2     3   ar
     3     3     4   ar
     4     4     5   ar
     5     5     6   ar
     6     1     6   ar
     7     6     7   ar
     8     7     8   ar
     9     8     9   ar
    10     9    10   ar
    11     5    10   ar
    12     9    11   ar
    13    11    12   ar
    14    12    13   ar
    15    13    14   ar
    16     8    14   ar
    17    13    15   ar
    18    15    16   ar
    19    16    17   ar
    20    17    18   ar
    21    12    18   ar
    22    17    19   ar
    23    19    20   ar
    24    20    21   ar
    25    21    22   ar
    26    16    22   ar
    27     1    23    1
    28     2    24    1
    29     3    25    1
    30     4    26    1
    31     7    27    1
    32    10    28    1
    33    11    29    1
    34    14    30    1
    35    15    31    1
    36    18    32    1
    37    19    33    1
    38    20    34    1
    39    21    35    1
    40    22    36    1
