@<TRIPOS>MOLECULE
*****
 42 47 0 0 0
SMALL
GASTEIGER

@<TRIPOS>ATOM
      1 C         -10.4850    7.0079   -1.0778 C.ar    1  LIG1       -0.0540
      2 C         -11.6558    6.3072   -0.8054 C.ar    1  LIG1       -0.0612
      3 C         -11.6561    4.9139   -0.8046 C.ar    1  LIG1       -0.0612
      4 C         -10.4849    4.2118   -1.0758 C.ar    1  LIG1       -0.0540
      5 C          -9.3086    4.8988   -1.3400 C.ar    1  LIG1       -0.0173
      6 C          -9.3132    6.3112   -1.3405 C.ar    1  LIG1       -0.0173
      7 C          -8.1359    7.0071   -1.4874 C.ar    1  LIG1       -0.0463
      8 C          -6.9745    6.2973   -1.3839 C.ar    1  LIG1       -0.0167
      9 C          -6.9319    4.8717   -1.3541 C.ar    1  LIG1       -0.0167
     10 C          -8.1219    4.1878   -1.4712 C.ar    1  LIG1       -0.0463
     11 C          -5.7560    4.1940   -1.0863 C.ar    1  LIG1       -0.0463
     12 C          -4.6892    5.0655   -0.8270 C.ar    1  LIG1       -0.0167
     13 C          -4.7541    6.4858   -0.8767 C.ar    1  LIG1       -0.0167
     14 C          -5.8982    7.0890   -1.1680 C.ar    1  LIG1       -0.0463
     15 C          -3.7311    7.3669   -0.6650 C.ar    1  LIG1       -0.0463
     16 C          -2.8443    6.3173   -0.4868 C.ar    1  LIG1       -0.0167
     17 C          -1.8114    6.0178   -0.1348 C.ar    1  LIG1       -0.0167
     18 C          -3.3602    4.8958   -0.4641 C.ar    1  LIG1       -0.0463
     19 C          -0.1345    6.4159    0.2011 C.ar    1  LIG1       -0.0463
     20 C           0.2771    5.0339    0.2587 C.ar    1  LIG1       -0.0173
     21 C          -0.7054    4.1302   -0.0363 C.ar    1  LIG1       -0.0173
     22 C          -1.5975    5.0808   -0.2260 C.ar    1  LIG1       -0.0463
     23 C          -1.0154    2.7929   -0.0327 C.ar    1  LIG1       -0.0540
     24 C           0.0781    2.2024    0.4758 C.ar    1  LIG1       -0.0612
     25 C           1.2286    2.9774    0.8399 C.ar    1  LIG1       -0.0612
     26 C           1.3965    4.3678    0.6341 C.ar    1  LIG1       -0.0540
     27 H         -10.4877    8.0398   -1.0845 H       1  LIG1        0.0624
     28 H         -12.5274    6.8214   -0.6032 H       1  LIG1        0.0618
     29 H         -12.5280    4.4003   -0.6022 H       1  LIG1        0.0618
     30 H         -10.4916    3.1798   -1.0804 H       1  LIG1        0.0624
     31 H          -8.1308    8.0231   -1.6682 H       1  LIG1        0.0630
     32 H          -8.1318    3.1718   -1.6521 H       1  LIG1        0.0630
     33 H          -5.6737    3.1653   -1.0784 H       1  LIG1        0.0630
     34 H          -5.9652    8.1171   -1.2275 H       1  LIG1        0.0630
     35 H          -3.6514    8.3957   -0.6457 H       1  LIG1        0.0630
     36 H          -3.1331    3.8976   -0.3334 H       1  LIG1        0.0630
     37 H           0.3705    7.3087    0.3152 H       1  LIG1        0.0630
     38 H          -0.8685    5.8068   -0.1442 H       1  LIG1        0.0630
     39 H          -1.8893    2.3439   -0.3486 H       1  LIG1        0.0624
     40 H           0.0908    1.1787    0.6061 H       1  LIG1        0.0618
     41 H           2.0068    2.4745    1.2943 H       1  LIG1        0.0618
     42 H           2.3052    4.8402    0.7608 H       1  LIG1        0.0624
@<TRIPOS>BOND
     1     1     2   ar
     2     2     3   ar
     3     3     4   ar
     4     4     5   ar
     5     5     6   ar
     6     1     6   ar
     7     6     7   ar
     8     7     8   ar
     9     8     9   ar
    10     9    10   ar
    11     5    10   ar
    12     9    11   ar
    13    11    12   ar
    14    12    13   ar
    15    13    14   ar
    16     8    14   ar
    17    13    15   ar
    18    15    16   ar
    19    16    17   ar
    20    17    18   ar
    21    12    18   ar
    22    17    19   ar
    23    19    20   ar
    24    20    21   ar
    25    21    22   ar
    26    16    22   ar
    27    21    23   ar
    28    23    24   ar
    29    24    25   ar
    30    25    26   ar
    31    20    26   ar
    32     1    27    1
    33     2    28    1
    34     3    29    1
    35     4    30    1
    36     7    31    1
    37    10    32    1
    38    11    33    1
    39    14    34    1
    40    15    35    1
    41    18    36    1
    42    19    37    1
    43    22    38    1
    44    23    39    1
    45    24    40    1
    46    25    41    1
    47    26    42    1
