@<TRIPOS>MOLECULE
*****
 36 42 0 0 0
SMALL
GASTEIGER

@<TRIPOS>ATOM
      1 C          -5.7847    6.9358   -5.6023 C.ar    1  LIG1       -0.0534
      2 C          -5.0993    8.1526   -5.6011 C.ar    1  LIG1       -0.0534
      3 C          -3.6965    8.1976   -5.6031 C.ar    1  LIG1       -0.0166
      4 C          -2.9739    6.9913   -5.6097 C.ar    1  LIG1       -0.0013
      5 C          -3.6696    5.7623   -5.6110 C.ar    1  LIG1       -0.0013
      6 C          -5.0796    5.7300   -5.6070 C.ar    1  LIG1       -0.0166
      7 C          -5.7461    4.5030   -5.6002 C.ar    1  LIG1       -0.0534
      8 C          -5.0333    3.3052   -5.6017 C.ar    1  LIG1       -0.0534
      9 C          -3.6398    3.3215   -5.6080 C.ar    1  LIG1       -0.0166
     10 C          -2.9524    4.5517   -5.6122 C.ar    1  LIG1       -0.0013
     11 C          -1.5459    4.5655   -5.6132 C.ar    1  LIG1       -0.0013
     12 C          -0.8402    3.3465   -5.6103 C.ar    1  LIG1       -0.0166
     13 C          -1.5347    2.1387   -5.6087 C.ar    1  LIG1       -0.0534
     14 C          -2.9239    2.1246   -5.6131 C.ar    1  LIG1       -0.0534
     15 C           0.5537    3.3543   -5.6079 C.ar    1  LIG1       -0.0534
     16 C           1.2503    4.5612   -5.6085 C.ar    1  LIG1       -0.0534
     17 C           0.5671    5.7788   -5.6122 C.ar    1  LIG1       -0.0166
     18 C          -0.8424    5.7828   -5.6137 C.ar    1  LIG1       -0.0013
     19 C          -1.5549    7.0050   -5.6119 C.ar    1  LIG1       -0.0013
     20 C          -0.8515    8.2192   -5.6086 C.ar    1  LIG1       -0.0166
     21 C           0.5530    8.2001   -5.6067 C.ar    1  LIG1       -0.0534
     22 C           1.2569    6.9910   -5.6077 C.ar    1  LIG1       -0.0534
     23 C          -1.5811    9.4147   -5.6051 C.ar    1  LIG1       -0.0534
     24 C          -2.9847    9.4026   -5.6016 C.ar    1  LIG1       -0.0534
     25 H          -6.8166    6.9275   -5.5999 H       1  LIG1        0.0624
     26 H          -5.6343    9.0351   -5.5986 H       1  LIG1        0.0624
     27 H          -6.7779    4.4827   -5.5939 H       1  LIG1        0.0624
     28 H          -5.5382    2.4051   -5.5983 H       1  LIG1        0.0624
     29 H          -1.0133    1.2480   -5.6042 H       1  LIG1        0.0624
     30 H          -3.4284    1.2244   -5.6203 H       1  LIG1        0.0624
     31 H           1.0722    2.4621   -5.6056 H       1  LIG1        0.0624
     32 H           2.2823    4.5549   -5.6061 H       1  LIG1        0.0624
     33 H           1.0735    9.0912   -5.6046 H       1  LIG1        0.0624
     34 H           2.2888    6.9960   -5.6051 H       1  LIG1        0.0624
     35 H          -1.0799   10.3168   -5.6050 H       1  LIG1        0.0624
     36 H          -3.5001   10.2967   -5.5978 H       1  LIG1        0.0624
@<TRIPOS>BOND
     1     1     2   ar
     2     2     3   ar
     3     3     4   ar
     4     4     5   ar
     5     5     6   ar
     6     1     6   ar
     7     6     7   ar
     8     7     8   ar
     9     8     9   ar
    10     9    10   ar
    11     5    10   ar
    12    10    11   ar
    13    11    12   ar
    14    12    13   ar
    15    13    14   ar
    16     9    14   ar
    17    12    15   ar
    18    15    16   ar
    19    16    17   ar
    20    17    18   ar
    21    11    18   ar
    22    18    19   ar
    23     4    19   ar
    24    19    20   ar
    25    20    21   ar
    26    21    22   ar
    27    17    22   ar
    28    20    23   ar
    29    23    24   ar
    30     3    24   ar
    31     1    25    1
    32     2    26    1
    33     7    27    1
    34     8    28    1
    35    13    29    1
    36    14    30    1
    37    15    31    1
    38    16    32    1
    39    21    33    1
    40    22    34    1
    41    23    35    1
    42    24    36    1
