@<TRIPOS>MOLECULE
*****
 32 36 0 0 0
SMALL
GASTEIGER

@<TRIPOS>ATOM
      1 C          -3.5863    9.3085   -5.9831 C.ar    1  LIG1       -0.0606
      2 C          -4.8327    8.7224   -5.9140 C.ar    1  LIG1       -0.0540
      3 C          -4.9789    7.3415   -5.8680 C.ar    1  LIG1       -0.0167
      4 C          -3.8621    6.4015   -5.8657 C.ar    1  LIG1       -0.0024
      5 C          -2.6529    7.0451   -5.8453 C.ar    1  LIG1       -0.0090
      6 C          -2.5205    8.4227   -5.9277 C.ar    1  LIG1       -0.0534
      7 C          -1.4513    6.4016   -5.7748 C.ar    1  LIG1       -0.0090
      8 C          -0.4063    7.2733   -5.6480 C.ar    1  LIG1       -0.0534
      9 C           0.9150    6.9283   -5.7891 C.ar    1  LIG1       -0.0606
     10 C           1.1363    5.5910   -5.9774 C.ar    1  LIG1       -0.0540
     11 C           0.1028    4.6531   -5.9465 C.ar    1  LIG1       -0.0167
     12 C          -1.3008    5.0202   -5.8660 C.ar    1  LIG1       -0.0024
     13 C          -2.4227    4.1668   -5.8579 C.ar    1  LIG1       -0.0090
     14 C          -1.8964    2.7860   -5.8229 C.ar    1  LIG1       -0.0534
     15 C          -0.5010    2.4014   -5.8144 C.ar    1  LIG1       -0.0606
     16 C           0.4979    3.3501   -5.9117 C.ar    1  LIG1       -0.0540
     17 C          -3.8750    4.9661   -5.8595 C.ar    1  LIG1       -0.0090
     18 C          -5.2612    4.5665   -5.8521 C.ar    1  LIG1       -0.0534
     19 C          -6.3913    5.4649   -5.8452 C.ar    1  LIG1       -0.0606
     20 C          -6.2541    6.8469   -5.8442 C.ar    1  LIG1       -0.0540
     21 H          -3.4565   10.3286   -6.0696 H       1  LIG1        0.0618
     22 H          -5.6730    9.3212   -5.8960 H       1  LIG1        0.0624
     23 H          -1.5661    8.8149   -5.9492 H       1  LIG1        0.0624
     24 H          -0.6254    8.2582   -5.4313 H       1  LIG1        0.0624
     25 H           1.6791    7.6211   -5.7559 H       1  LIG1        0.0618
     26 H           2.1004    5.2646   -6.1480 H       1  LIG1        0.0624
     27 H          -2.5906    2.0228   -5.8026 H       1  LIG1        0.0624
     28 H          -0.2489    1.4039   -5.7344 H       1  LIG1        0.0618
     29 H           1.4942    3.0849   -5.9560 H       1  LIG1        0.0624
     30 H          -5.4617    3.5541   -5.8516 H       1  LIG1        0.0624
     31 H          -7.3418    5.0629   -5.8409 H       1  LIG1        0.0618
     32 H          -7.0755    7.4713   -5.8263 H       1  LIG1        0.0624
@<TRIPOS>BOND
     1     1     2   ar
     2     2     3   ar
     3     3     4   ar
     4     4     5   ar
     5     5     6   ar
     6     1     6   ar
     7     5     7   ar
     8     7     8   ar
     9     8     9   ar
    10     9    10   ar
    11    10    11   ar
    12    11    12   ar
    13     7    12   ar
    14    12    13   ar
    15    13    14   ar
    16    14    15   ar
    17    15    16   ar
    18    11    16   ar
    19    13    17   ar
    20     4    17   ar
    21    17    18   ar
    22    18    19   ar
    23    19    20   ar
    24     3    20   ar
    25     1    21    1
    26     2    22    1
    27     6    23    1
    28     8    24    1
    29     9    25    1
    30    10    26    1
    31    14    27    1
    32    15    28    1
    33    16    29    1
    34    18    30    1
    35    19    31    1
    36    20    32    1
