@<TRIPOS>MOLECULE
*****
 46 53 0 0 0
SMALL
GASTEIGER

@<TRIPOS>ATOM
      1 C           0.4862    4.3170    0.0615 C.ar    1  LIG1       -0.0167
      2 C          -0.8952    4.6009    0.0615 C.ar    1  LIG1       -0.0024
      3 C          -1.3220    5.9537    0.0615 C.ar    1  LIG1       -0.0090
      4 C          -0.3534    6.9690    0.0606 C.ar    1  LIG1       -0.0534
      5 C           0.9991    6.6635    0.0605 C.ar    1  LIG1       -0.0606
      6 C           1.4195    5.3428    0.0615 C.ar    1  LIG1       -0.0540
      7 C          -2.7078    6.2587    0.0621 C.ar    1  LIG1       -0.0089
      8 C          -3.2252    7.5592    0.0631 C.ar    1  LIG1       -0.0528
      9 C          -4.7373    7.7489    0.0619 C.ar    1  LIG1       -0.0528
     10 C          -6.2608    6.8812    0.0558 C.ar    1  LIG1       -0.0089
     11 C          -5.1634    5.5609    0.0612 C.ar    1  LIG1       -0.0013
     12 C          -3.6882    5.2085    0.0628 C.ar    1  LIG1       -0.0013
     13 C          -3.2289    3.8314    0.0616 C.ar    1  LIG1       -0.0089
     14 C          -4.1635    2.7882    0.0613 C.ar    1  LIG1       -0.0528
     15 C          -5.4532    3.1151    0.0600 C.ar    1  LIG1       -0.0528
     16 C          -5.8200    4.4111    0.0614 C.ar    1  LIG1       -0.0089
     17 C          -6.8662    4.5156    0.0869 C.ar    1  LIG1       -0.0090
     18 C          -7.7472    3.4412    0.0909 C.ar    1  LIG1       -0.0534
     19 C          -7.8101    2.2104    0.0799 C.ar    1  LIG1       -0.0606
     20 C          -8.8477    3.1691    0.0676 C.ar    1  LIG1       -0.0540
     21 C          -8.5982    5.1172    0.0575 C.ar    1  LIG1       -0.0167
     22 C          -7.6123    5.7021    0.0564 C.ar    1  LIG1       -0.0024
     23 C          -8.2589    6.6684    0.0326 C.ar    1  LIG1       -0.0090
     24 C         -10.0774    6.0493    0.0070 C.ar    1  LIG1       -0.0534
     25 C         -11.5471    5.6670   -0.0042 C.ar    1  LIG1       -0.0606
     26 C         -10.2747    5.7930    0.0656 C.ar    1  LIG1       -0.0540
     27 C          -1.8579    3.5450    0.0615 C.ar    1  LIG1       -0.0090
     28 C          -1.4407    2.2211    0.0615 C.ar    1  LIG1       -0.0534
     29 C          -0.0780    1.9706    0.0615 C.ar    1  LIG1       -0.0606
     30 C           0.8941    2.9955    0.0615 C.ar    1  LIG1       -0.0540
     31 H          -0.6519    7.9569    0.0599 H       1  LIG1        0.0624
     32 H           1.6967    7.4240    0.0598 H       1  LIG1        0.0618
     33 H           2.4278    5.1226    0.0621 H       1  LIG1        0.0624
     34 H          -2.5938    8.3755    0.0647 H       1  LIG1        0.0624
     35 H          -4.9387    8.7610    0.0661 H       1  LIG1        0.0624
     36 H          -3.8624    1.8011    0.0622 H       1  LIG1        0.0624
     37 H          -6.1729    2.3754    0.0578 H       1  LIG1        0.0624
     38 H          -8.7096    3.8132    0.1105 H       1  LIG1        0.0624
     39 H          -7.4207    1.2547    0.0798 H       1  LIG1        0.0618
     40 H          -9.8176    2.8165    0.0637 H       1  LIG1        0.0624
     41 H          -9.7812    5.0642   -0.0756 H       1  LIG1        0.0624
     42 H         -12.5625    5.4858   -0.0362 H       1  LIG1        0.0618
     43 H         -10.1326    6.8073    0.1921 H       1  LIG1        0.0624
     44 H          -2.1240    1.4478    0.0615 H       1  LIG1        0.0624
     45 H           0.2417    0.9894    0.0615 H       1  LIG1        0.0618
     46 H           1.8990    2.7605    0.0615 H       1  LIG1        0.0624
@<TRIPOS>BOND
     1     1     2   ar
     2     2     3   ar
     3     3     4   ar
     4     4     5   ar
     5     5     6   ar
     6     1     6   ar
     7     3     7   ar
     8     7     8   ar
     9     8     9   ar
    10     9    10   ar
    11    10    11   ar
    12    11    12   ar
    13     7    12   ar
    14    12    13   ar
    15    13    14   ar
    16    14    15   ar
    17    15    16   ar
    18    11    16   ar
    19    16    17   ar
    20    17    18   ar
    21    18    19   ar
    22    19    20   ar
    23    20    21   ar
    24    21    22   ar
    25    17    22   ar
    26    22    23   ar
    27    10    23   ar
    28    23    24   ar
    29    24    25   ar
    30    25    26   ar
    31    21    26   ar
    32    13    27   ar
    33     2    27   ar
    34    27    28   ar
    35    28    29   ar
    36    29    30   ar
    37     1    30   ar
    38     4    31    1
    39     5    32    1
    40     6    33    1
    41     8    34    1
    42     9    35    1
    43    14    36    1
    44    15    37    1
    45    18    38    1
    46    19    39    1
    47    20    40    1
    48    24    41    1
    49    25    42    1
    50    26    43    1
    51    28    44    1
    52    29    45    1
    53    30    46    1
