@<TRIPOS>MOLECULE
*****
 11 10 0 0 0
SMALL
GASTEIGER

@<TRIPOS>ATOM
      1 C          -5.2454    0.2739   -0.0127 C.3     1  LIG1        0.1002
      2 F          -5.9989    1.3298   -0.2119 F       1  LIG1       -0.2485
      3 C          -3.8693   -0.1741    0.0718 C.3     1  LIG1        0.0729
      4 C          -3.2197   -1.4613    0.3147 C.2     1  LIG1        0.3072
      5 O          -4.1437   -2.2774    0.4687 O.2     1  LIG1       -0.2509
      6 O          -2.0533   -1.5041    0.3228 O.3     1  LIG1       -0.4806
      7 H          -5.6141   -0.3752   -0.7793 H       1  LIG1        0.0620
      8 H          -5.2854    0.4191    1.0467 H       1  LIG1        0.0620
      9 H          -3.4642    0.4462    0.8439 H       1  LIG1        0.0403
     10 H          -3.7080   -0.1847   -0.9859 H       1  LIG1        0.0403
     11 H          -1.5549   -0.7244    0.1757 H       1  LIG1        0.2951
@<TRIPOS>BOND
     1     1     2    1
     2     1     3    1
     3     3     4    1
     4     4     5    2
     5     4     6    1
     6     1     7    1
     7     1     8    1
     8     3     9    1
     9     3    10    1
    10     6    11    1
