@<TRIPOS>MOLECULE
*****
 11 10 0 0 0
SMALL
GASTEIGER

@<TRIPOS>ATOM
      1 C           0.9904    0.3848    0.1979 C.3     1  LIG1       -0.0552
      2 C           2.2831   -0.3325   -0.1794 C.3     1  LIG1        0.0420
      3 C           3.2275   -1.4322   -0.7578 C.2     1  LIG1        0.3044
      4 O           2.4744   -2.3502   -1.2406 O.2     1  LIG1       -0.2510
      5 O           4.4540   -1.2961   -0.6862 O.3     1  LIG1       -0.4806
      6 H           1.2241    1.3090    0.6840 H       1  LIG1        0.0235
      7 H           0.4203   -0.2324    0.8604 H       1  LIG1        0.0235
      8 H           0.4203    0.5810   -0.6860 H       1  LIG1        0.0235
      9 H           2.6999   -0.3356    0.8061 H       1  LIG1        0.0375
     10 H           2.0966   -0.0319   -1.1892 H       1  LIG1        0.0375
     11 H           4.8179   -0.5319   -0.2842 H       1  LIG1        0.2951
@<TRIPOS>BOND
     1     1     2    1
     2     2     3    1
     3     3     4    2
     4     3     5    1
     5     1     6    1
     6     1     7    1
     7     1     8    1
     8     2     9    1
     9     2    10    1
    10     5    11    1
