@<TRIPOS>MOLECULE
*****
 8 7 0 0 0
SMALL
GASTEIGER

@<TRIPOS>ATOM
      1 C           1.1210   -0.0120    0.0410 C.3     1  LIG1        0.1195
      2 CL          0.2808   -0.5279    1.4724 Cl      1  LIG1       -0.1135
      3 C           2.5892    0.0144   -0.0322 C.2     1  LIG1        0.3195
      4 O           3.0081    0.4214   -1.1617 O.2     1  LIG1       -0.2497
      5 O           3.1643   -0.3562    0.9961 O.3     1  LIG1       -0.4798
      6 H           0.7930    0.9874   -0.1553 H       1  LIG1        0.0545
      7 H           0.8745   -0.7856   -0.6560 H       1  LIG1        0.0545
      8 H           2.6643   -0.6249    1.7416 H       1  LIG1        0.2951
@<TRIPOS>BOND
     1     1     2    1
     2     1     3    1
     3     3     4    2
     4     3     5    1
     5     1     6    1
     6     1     7    1
     7     5     8    1
